/*--------------------------------*- C++ -*----------------------------------*\
| =========                 |                                                 |
| \\      /  F ield         | OpenFOAM: The Open Source CFD Toolbox           |
|  \\    /   O peration     | Version:  v2506                                 |
|   \\  /    A nd           | Website:  www.openfoam.com                      |
|    \\/     M anipulation  |                                                 |
\*---------------------------------------------------------------------------*/
FoamFile
{
    version     2.0;
    format      ascii;
    class       dictionary;
    object      controlDict;
}
// * * * * * * * * * * * * * * * * * * * * * * * * * * * * * * * * * * * * * //

application     interFoam;

startFrom       latestTime;

startTime       0;

stopAt          endTime;

endTime         10;

deltaT          0.001;

writeControl    adjustable;

writeInterval   0.02;

purgeWrite      0;

writeFormat     ascii;

writePrecision  6;

writeCompression off;

timeFormat      general;

timePrecision   6;

runTimeModifiable yes;

adjustTimeStep  off;

maxCo           10;

maxAlphaCo      5;

maxDeltaT       1;


functions
{
 

    // === Faydalı hazır FO'lar ===
    #includeFunc solverInfo
    #includeFunc CourantNo

    // === Forces on impeller 1 ===
    forces
    {
        type            forces;
        libs            ("libforces.so");

        writeControl    timeStep;
        writeInterval   1;

        log             true;

        patches         (wall_impeller_1);
        rho             rhoInf;        // incompressible kullanım
        rhoInf          1000;          // [kg/m3]

        CofR            (0 0 0.08);    // moment merkezi
        // pitchAxis    (0 0 1);       // (sadece forceCoeffs için gereklidir)
    }

    // === Forces on impeller 2 ===
    forces2
    {
        type            forces;
        libs            ("libforces.so");

        writeControl    timeStep;
        writeInterval   1;

        log             true;

        patches         (wall_impeller_2);
        rho             rhoInf;
        rhoInf          1000;

        CofR            (0 0 0.190);
        // pitchAxis    (0 0 1);
    }
 
}

// ************************************************************************* //
