/*--------------------------------*- C++ -*----------------------------------*\
| =========                 |                                                 |
| \\      /  F ield         | OpenFOAM: The Open Source CFD Toolbox           |
|  \\    /   O peration     | Version:  v2506                                 |
|   \\  /    A nd           | Website:  www.openfoam.com                      |
|    \\/     M anipulation  |                                                 |
\*---------------------------------------------------------------------------*/
FoamFile
{
    version     2.0;
    format      ascii;
    class       dictionary;
    object      createPatchDict;
}
pointSync false;

patches
(
    // ---------- MRF_2_Bottom / SHADOW ----------
    {
        name ns-imp1-internal_SHADOW;
        patchInfo
        {
            type            cyclicAMI;
            matchTolerance  0.001;
            neighbourPatch  ns-imp1-internal;
            transform       noOrdering;
        }
        constructFrom patches;
        patches (ns-imp1-internal_SHADOW);
    }
    {
        name ns-imp2-internal_SHADOW;
        patchInfo
        {
            type            cyclicAMI;
            matchTolerance  0.001;
            neighbourPatch  ns-imp2-internal;
            transform       noOrdering;
        }
        constructFrom patches;
        patches (ns-imp2-internal_SHADOW);
    }

    // ---------- MRF_2_Side / SHADOW ----------
    {
        name ns-imp2-internal;
        patchInfo
        {
            type            cyclicAMI;
            matchTolerance  0.001;
            neighbourPatch  ns-imp2-internal_SHADOW;
            transform       noOrdering;
        }
        constructFrom patches;
        patches (ns-imp2-internal);
    }
    {
        name ns-imp1-internal;
        patchInfo
        {
            type            cyclicAMI;
            matchTolerance  0.001;
            neighbourPatch  ns-imp1-internal_SHADOW;
            transform       noOrdering;
        }
        constructFrom patches;
        patches (ns-imp1-internal);
    }

     
);

// ************************************************************************* //