/*--------------------------------*- C++ -*----------------------------------*\
| =========                 |                                                 |
| \\      /  F ield         | OpenFOAM: The Open Source CFD Toolbox           |
|  \\    /   O peration     | Version:  v2506                                 |
|   \\  /    A nd           | Website:  www.openfoam.com                      |
|    \\/     M anipulation  |                                                 |
\*---------------------------------------------------------------------------*/
FoamFile
{
    version     2.0;
    format      ascii;
    class       dictionary;
    object      fvSolution;
}
// * * * * * * * * * * * * * * * * * * * * * * * * * * * * * * * * * * * * * //

solvers
{
    "alpha.*"
    {
        nAlphaCorr      1;
        nAlphaSubCycles 1;
        cAlpha          0.5;

        MULESCorr       yes;
        nLimiterIter    3;

        solver          smoothSolver;
        smoother        symGaussSeidel;
        tolerance       1e-8;
        relTol          0;
    }

    "pcorr.*"
    {
        solver          PCG;
        preconditioner
        {
            preconditioner  GAMG;
            tolerance       1e-5;
            relTol          0;
            smoother        GaussSeidel;
        }
        tolerance       1e-8;
        relTol          0;
        maxIter         50;
    };

    p_rgh
    {
        solver          PCG;
        preconditioner  DIC;

        //solver           GAMG;
        tolerance        1e-07;
        relTol           0.1;

        /*smoother         GaussSeidel;
        directSolveCoarsest false;
        agglomerator faceAreaPair;
        mergeLevels      1;
        nCellsInCoarsestLevel 256;

        maxIter          1000;
        nPreSweeps       0;
        nPostSweeps      2;
        nFinestSweeps    2;*/
    };

    p_rghFinal
    {
        $p_rgh;
        tolerance       1e-07;
        relTol          0;
    };

    "(U|k|epsilon).*"
    {
        solver          smoothSolver;
        smoother        symGaussSeidel;
        tolerance       1e-05;
        relTol          0;
    };
}


PIMPLE
{
    nOuterCorrectors 2;
    nCorrectors      3;
    nNonOrthogonalCorrectors 2;

    // Basınç referansı:
    pRefCell  0;
    pRefValue 0;
    // (istersen pRefPoint de kullanabilirsin:
    // pRefPoint (0 0 0);
}

relaxationFactors
{
    equations
    {
        ".*"                1;
    }
}


// ************************************************************************* //
