/*--------------------------------*- C++ -*----------------------------------*\
  =========                 |
  \\      /  F ield         | OpenFOAM: The Open Source CFD Toolbox
   \\    /   O peration     | Website:  https://openfoam.org
    \\  /    A nd           | Version:  7  
     \\/     M anipulation  |
\*---------------------------------------------------------------------------*/
FoamFile
{
    version     2.0;
    format      ascii;
    class       dictionary;
    location    "constant";
    object      MRFProperties;
}
// * * * * * * * * * * * * * * * * * * * * * * * * * * * * * * * * * * * * * //

MRFImpeller
{
    cellZone    fluid_mrf_1-1;
    active      yes;

    // Fixed patches (by default they 'move' with the MRF zone)
    nonRotatingPatches (ns-imp2-internal_SHADOW  ns-imp2-internal);

    origin    (0.0 0.0 0.08);
    axis      (0 0 1);
    omega     constant 12; // ~120 RPM
}


MRFImpeller1
{
    cellZone    fluid_mrf_2-0;
    active      yes;

    // Fixed patches (by default they 'move' with the MRF zone)
    nonRotatingPatches (ns-imp1-internal_SHADOW  ns-imp1-internal);

    origin    (0.0 0.0 0.190);
    axis      (0 0 1);
    omega     constant 12; // ~120 RPM
}

// ************************************************************************* //
