/*--------------------------------*- C++ -*----------------------------------*\
  =========                 |
  \\      /  F ield         | OpenFOAM: The Open Source CFD Toolbox
   \\    /   O peration     | Website:  https://openfoam.org
    \\  /    A nd           | Version:  7  
     \\/     M anipulation  |
\*---------------------------------------------------------------------------*/
FoamFile
{
    version     2.0;
    format      ascii;
    class       volScalarField;
    object      p;
}
// * * * * * * * * * * * * * * * * * * * * * * * * * * * * * * * * * * * * * //

dimensions          [0 2 -2 0 0 0 0];

internalField       uniform 0;

boundaryField
{
    #includeEtc "caseDicts/setConstraintTypes"

    "(all_wall|wall_impeller_1|wall_impeller_2)"
    {
        type            zeroGradient;  
    }        
}

// * * * * * * * * * * * * * * * * * * * * * * * * * * * * * * * * * * * * * //
